/*--------------------------------*- C++ -*----------------------------------*\
  =========                 |
  \\      /  F ield         | OpenFOAM: The Open Source CFD Toolbox
   \\    /   O peration     | Website:  https://openfoam.org
    \\  /    A nd           | Version:  10
     \\/     M anipulation  |
\*---------------------------------------------------------------------------*/
FoamFile
{
    format      ascii;
    class       dictionary;
    object      blockMeshDict;
}
// * * * * * * * * * * * * * * * * * * * * * * * * * * * * * * * * * * * * * //

convertToMeters 0.001;

vertices
(
    (0 0 0) //0
    (250 0 0) //1
    (325 0 0) //2
    (0 10.5 0) //3
    (250 10.5 0) //4
    (325 10.5 0) //5
    (400 10.5 0) //6
    (0 10.5 0) //7
    (250 21 0) //8
    (325 21 0) //9
    (400 21 0) //10
    (0 42 0) //11
    (250 42 0) //12

    (0 0 0.05) //13
    (250 0 0.05) //14
    (325 0 0.05) //15
    (0 10.5 0.05) //16
    (250 10.5 0.05) //17
    (325 10.5 0.05) //18
    (400 10.5 0.05) //19
    (0 10.5 0.05) //20
    (250 21 0.05) //21
    (325 21 0.05) //22
    (400 21 0.05) //23
    (0 42 0.05) //24
    (250 42 0.05) //25
    
    (445 -19.5 0) //26 go down
    (445 -25.2 0) //27
    (450 -30.2 0) //28 go right
    (455 -30.2 0) //29
    (477.5 -24.4 0) //30
    (477.5 -30 0) //31
    (477.5 -47.7 0) //32
    (455 -47.7 0) //33
    (450 -47.7 0) //34
    (445 -47.7 0)//35
    (430 -47.7 0)//36
    (415 -47.7 0)//37
    (265 -47.7 0) //38
    (265 -20.7 0) //39
    (415 -31.2 0) //40
    (430 -31.2 0) //41
    (445 -31.2 0) //42 go right
    (450 -31.2 0)//43
    (455 -31.2 0) //44 end
    (430 -25.2 0) //45 go up
    (430 -19.5 0) //46
   
    (445 -19.5 0.05) //47 go down
    (445 -25.2 0.05) //48
    (450 -30.2 0.05) //49 go right
    (455 -30.2 0.05) //50
    (477.5 -24.4 0.05) //51
    (477.5 -30 0.05) //52
    (477.5 -47.7 0.05)//53
    (455 -47.7 0) //54
    (450 -47.7 0.05) //55
    (445 -47.7 0.05)//56
    (430 -47.7 0.05)//57
    (415 -47.7 0.05)//58
    (265 -47.7 0.05) //59
    (265 -20.7 0.05) //60
    (415 -31.2 0.05) //61
    (430 -31.2 0.05) //62
    (445 -31.2 0.05) //63 go right
    (450 -31.2 0.05)//64
    (455 -31.2 0.05) //65 end
    (430 -25.2 0.05) //66 go up
    (430 -19.5 0.05) //67
   


);


blocks
(
    hex (0 1 4 3 13 14 17 16) (100 10 1) simpleGrading (1 1 1) //0
    hex (1 2 5 4 14 15 18 17) (27 10 1) simpleGrading (1 1 1) //1
    hex (3 4 8 7 16 17 21 20) (100 10 1) simpleGrading (1 1 1) //2
    hex (4 5 9 8 17 18 22 21) (27 10 1) simpleGrading (1 1 1) //3
    hex (5 6 10 9 18 19 23 22) (83 10 1) simpleGrading (1 1 1) //4
    hex (7 8 12 11 20 21 25 24) (100 21 1) simpleGrading (1 1 1) //5
    hex (6 46 26 10 19 67 47 23) (15 10 1) simpleGrading (1 1 1) //6   arc
	hex (45 27 26 46 66 48 47 67) (10 5 1) simpleGrading (1 1 1) //7
	hex (41 42 27 45 62 63 48 66) (10 5 1) simpleGrading (1 1 1) //8
	hex (36 35 42 41 57 56 63 62) (10 15 1) simpleGrading (1 1 1) //9
	hex (37 36 41 40 58 57 62 61) (10 15 1) simpleGrading (1 1 1) //10
	hex (38 37 40 39 59 58 61 60) (150 15 1) simpleGrading (1 1 1) //11
	hex (35 34 43 42 56 55 64 63) (5 15 1) simpleGrading (1 1 1) //12
	hex (34 33 44 43 55 54 65 64) (5 15 1) simpleGrading (1 1 1) //13
	hex (43 44 29 28 64 65 50 49) (5 5 1) simpleGrading (1 1 1) //14
	hex (42 43 28 27 63 64 49 48) (5 5 1) simpleGrading (1 1 1) //15
	hex (33 32 31 44 54 53 52 65) (20 15 1) simpleGrading (1 1 1) //16
	hex (44 31 30 29 65 52 51 50) (20 5 1) simpleGrading (1 1 1) //17
	

);

edges
(
	arc 6 46 origin (400 -19.5 0)
	arc 19 67 origin (400 -19.5 0.05)
	arc 10 26 origin (400 -19.5 0)
	arc 23 47 origin (400 -19.5 0)
	arc 27 28 origin (450 -25.2 0)
	arc 48 49 origin  (450 -25.2 0.05)
	
);

boundary
(
	sym
	{
		type symmetryPlane;
		faces
		(
		(38 37 58 59)
		(37 36 57 58)
		(36 35 56 57)
		(35 34 55 56)
		(34 33 54 55)
		(33 32 53 54)
		);
	}
    movingWall
    {
        type wall;
        faces
        (
            (0 13 16 3)
            (3 16 20 7)
            (7 20 24 11)
        );   
    }
    slipwall
    {
        type wall;
        faces
        (
            (11 24 25 12)
            (1 14 13 0)
        );
    }
    fixedWall
    {
        type wall;
        faces
        (
             (12 25 21 8)
            (8 21 22 9)
            (9 22 23 10)
            (6 19 18 5)
            (5 18 15 2)
            (2 15 14 1)

            (6 19 67 46)
            (10 23 47 26)
			(46 67 66 45)
			(45 66 62 41)
			(41 62 61 40)
			(40 61 60 39)
			//outlet
			(38 59 58 37)
			(37 58 57 36)
			
			(36 57 56 35)
			
			(35 56 55 34)
			
			(34 55 54 33)
			
			(33 54 53 32)
			
			//outlet
			//outlet
			(30 51 50 29)
			
			(29 50 49 28)
			
			(28 49 48 27)
			
			(27 48 47 26)
			
		
            
        );
    }
	
    outlet
    {
        type patch;
        faces
        (
           (39 60 59 38)
			(30 51 52 31)
			(31 52 53 32)
        );
		
    }
	
	
	
);


// ************************************************************************* //
