/*--------------------------------*- C++ -*----------------------------------*\
| =========                 |                                                 |
| \\      /  F ield         | OpenFOAM: The Open Source CFD Toolbox           |
|  \\    /   O peration     | Version:  2312                                  |
|   \\  /    A nd           | Website:  www.openfoam.com                      |
|    \\/     M anipulation  |                                                 |
\*---------------------------------------------------------------------------*/
FoamFile
{
    version     2.0;
    format      binary;
    arch        "LSB;label=32;scalar=64";
    class       polyBoundaryMesh;
    location    "constant/polyMesh";
    object      boundary;
}
// * * * * * * * * * * * * * * * * * * * * * * * * * * * * * * * * * * * * * //

6
(
    sym
    {
        type            symmetryPlane;
        inGroups        1(symmetryPlane);
        nFaces          200;
        startFace       17259;
    }
    movingWall
    {
        type            wall;
        inGroups        1(wall);
        nFaces          41;
        startFace       17459;
    }
    slipwall
    {
        type            wall;
        inGroups        1(wall);
        nFaces          200;
        startFace       17500;
    }
    fixedWall
    {
        type            wall;
        inGroups        1(wall);
        nFaces          686;
        startFace       17700;
    }
    outlet
    {
        type            patch;
        nFaces          35;
        startFace       18386;
    }
    defaultFaces
    {
        type            empty;
        inGroups        1(empty);
        nFaces          17740;
        startFace       18421;
    }
)

// ************************************************************************* //
